$$$$$$$$$$$$$$$$$$$$$$$$$$$$$$$$$$$$$$$$$$$$$$$$$$$$$$$$$$$$$$$$$$$$$$$$$$$$$$$$$$$$$$$$$$$$$$$$
$
$                         CUBIT version 16.3.4 NX Nastran Translator
$
$            File: well02.bdf
$      Time Stamp: 17-Feb-19 at 11:59:58
$
$
$                        PLEASE CHECK YOUR MODEL FOR UNITS CONSISTENCY.
$
$       It should be noted that load ID's from CUBIT may NOT correspond to Nastran SID's
$ The SID's for the load and restraint sets start at one and increment by one:i.e.,1,2,3,4...
$
$$$$$$$$$$$$$$$$$$$$$$$$$$$$$$$$$$$$$$$$$$$$$$$$$$$$$$$$$$$$$$$$$$$$$$$$$$$$$$$$$$$$$$$$$$$$$$$$

$
$
$ -------------------------
$ Executive Control Section
$ -------------------------
$
SOL 101
CEND

$
$ --------------------
$ Case Control Section
$ --------------------
$
ECHO = SORT
$
$
$ Name: Initial
$
$
$ Name: Default Set
$
SUBCASE = 1
$
LABEL = Default Set

$
$ -----------------
$ Bulk Data Section
$ -----------------
$
BEGIN BULK
$
$ Params
$
$
$ Node cards
$
GRID    1030    0       900.    900.    -300.   
GRID    1060    0       900.    900.    -266.965
GRID    896     0       900.    900.    -250.641
GRID    23      0       900.    900.    -148.171
GRID    192     0       900.    900.    -124.995
GRID    193     0       900.    900.    -98.1443
GRID    194     0       900.    900.    -74.118 
GRID    195     0       900.    900.    -55.6191
GRID    196     0       900.    900.    -41.4408
GRID    197     0       900.    900.    -30.5298
GRID    198     0       900.    900.    -22.106 
GRID    199     0       900.    900.    -15.666 
GRID    200     0       900.    900.    -10.7073
GRID    201     0       900.    900.    -6.906  
GRID    202     0       900.    900.    -3.99774
GRID    203     0       900.    900.    -1.73665
GRID    24      0       900.    900.    0.      
GRID    940     0       900.    900.    -230.424
GRID    941     0       900.    900.    -206.166
GRID    942     0       900.    900.    -176.28 
$
$ Element cards
$
$
CROD    18      23      1030    1060    
CROD    19      23      1060    896     
CROD    1       23      23      192     
CROD    2       23      192     193     
CROD    3       23      193     194     
CROD    4       23      194     195     
CROD    5       23      195     196     
CROD    6       23      196     197     
CROD    7       23      197     198     
CROD    8       23      198     199     
CROD    9       23      199     200     
CROD    10      23      200     201     
CROD    11      23      201     202     
CROD    12      23      202     203     
CROD    13      23      203     24      
CROD    14      23      896     940     
CROD    15      23      940     941     
CROD    16      23      941     942     
CROD    17      23      942     23      
$
$ Property cards
$
$
PROD    23      100     0       0       0       0       
$
$ Material cards
$
$
$ Name: Default-Steel
$
MAT1*   100             206800          80155.039       0.29            
*       7e-06           1.2e-05         
$
$ Restraint cards
$
$
$ Load cards
$
$
$
ENDDATA
