$$$$$$$$$$$$$$$$$$$$$$$$$$$$$$$$$$$$$$$$$$$$$$$$$$$$$$$$$$$$$$$$$$$$$$$$$$$$$$$$$$$$$$$$$$$$$$$$
$
$                         CUBIT version 16.3.4 NX Nastran Translator
$
$            File: well01.bdf
$      Time Stamp: 17-Feb-19 at 11:59:58
$
$
$                        PLEASE CHECK YOUR MODEL FOR UNITS CONSISTENCY.
$
$       It should be noted that load ID's from CUBIT may NOT correspond to Nastran SID's
$ The SID's for the load and restraint sets start at one and increment by one:i.e.,1,2,3,4...
$
$$$$$$$$$$$$$$$$$$$$$$$$$$$$$$$$$$$$$$$$$$$$$$$$$$$$$$$$$$$$$$$$$$$$$$$$$$$$$$$$$$$$$$$$$$$$$$$$

$
$
$ -------------------------
$ Executive Control Section
$ -------------------------
$
SOL 101
CEND

$
$ --------------------
$ Case Control Section
$ --------------------
$
ECHO = SORT
$
$
$ Name: Initial
$
$
$ Name: Default Set
$
SUBCASE = 1
$
LABEL = Default Set

$
$ -----------------
$ Bulk Data Section
$ -----------------
$
BEGIN BULK
$
$ Params
$
$
$ Node cards
$
GRID    1113    0       100.    100.    -227.691
GRID    1115    0       100.    100.    -202.843
GRID    1116    0       100.    100.    -172.14 
GRID    1117    0       100.    100.    -137.393
GRID    1118    0       100.    100.    -102.731
GRID    1119    0       100.    100.    -74.8277
GRID    1120    0       100.    100.    -52.987 
GRID    1121    0       100.    100.    -36.0451
GRID    1122    0       100.    100.    -22.9894
GRID    1123    0       100.    100.    -13.5507
GRID    1124    0       100.    100.    -7.02453
GRID    1125    0       100.    100.    -2.89167
GRID    1114    0       100.    100.    0.      
GRID    895     0       100.    100.    -300.   
GRID    1126    0       100.    100.    -254.64 
$
$ Element cards
$
$
CROD    20      22      1113    1115    
CROD    21      22      1115    1116    
CROD    22      22      1116    1117    
CROD    23      22      1117    1118    
CROD    24      22      1118    1119    
CROD    25      22      1119    1120    
CROD    26      22      1120    1121    
CROD    27      22      1121    1122    
CROD    28      22      1122    1123    
CROD    29      22      1123    1124    
CROD    30      22      1124    1125    
CROD    31      22      1125    1114    
CROD    32      22      895     1126    
CROD    33      22      1126    1113    
$
$ Property cards
$
$
PROD    22      100     0       0       0       0       
$
$ Material cards
$
$
$ Name: Default-Steel
$
MAT1*   100             206800          80155.039       0.29            
*       7e-06           1.2e-05         
$
$ Restraint cards
$
$
$ Load cards
$
$
$
ENDDATA
